New England/MatPower Cases/Medium/Fall116Tight.m
% Case saved by PowerWorld Simulator, version 19, build date July 14, 2016
function mpc = Fall116
mpc.version = '2';
mpc.baseMVA =  100.00;

%% bus data 
mpc.bus = [
      1 2      0.00     0.00      0.00     0.00    1 1.1061680   -24.05784  345.00   1   1.060   1.000    27.20     0.00 0  0
      2 1    101.14    28.89      0.00     0.00    1 1.0302095   -24.10007  345.00   1   1.040   0.950    27.19    -0.02 0  0
      3 2      0.00     0.00      0.00     0.00    1 1.0200000   -12.72250  138.00   1   1.060   1.000    26.35     0.00 0  0
      4 1     73.78    19.06      0.00     0.00    1 0.9768926   -25.25088  138.00   1   1.040   0.950    27.17    -0.01 0  0
      5 1     86.85    32.86      0.00     0.00    1 0.9839283   -22.59555  230.00   1   1.040   0.950    27.16    -0.00 0  0
      6 1     78.70    25.57      0.00     0.00    1 1.0085586   -11.32376  138.00   1   1.040   0.950    27.15     0.00 0  0
      7 2    133.37    53.51      0.00     0.00    1 1.0112515   -21.85521  138.00   1   1.060   1.000    27.16     0.00 0  0
      8 2    106.38    32.64      0.00     0.00    1 1.0200000   -19.99552  230.00   1   1.060   1.000    27.16     0.00 0  0
      9 1      0.00     0.00      0.00     0.00    1 1.0265898   -21.42567  345.00   1   1.040   0.950    27.16    -0.00 0  0
     10 3     80.42    22.57      0.00     0.00    1 1.0200000     0.00000  138.00   1   1.060   1.000    27.15     0.00 0  0
     11 1      0.00     0.00      0.00     0.00    1 1.0166697    -1.16071  138.00   1   1.040   0.950    27.15    -0.00 0  0
     12 1      2.40     0.76      0.00     0.00    1 1.0156425    -2.08548  138.00   1   1.040   0.950    27.15    -0.00 0  0
     13 1      0.00     0.00      0.00     0.00    1 1.0150467    -4.48266  345.00   1   1.040   0.950    27.15    -0.00 0  0
     14 1    103.76    32.50      0.00     0.00    1 1.0104694   -11.96178  230.00   1   1.040   0.950    27.15    -0.00 0  0
     15 1    124.80    30.22      0.00     0.00    1 1.0020399   -16.11287  230.00   1   1.040   0.950    27.14    -0.00 0  0
     16 1    146.12    35.66      0.00     0.00    1 1.0007285   -19.41225  138.00   1   1.040   0.950    27.13    -0.00 0  0
     17 1     79.22    24.51      0.00     0.00    1 0.9799777   -22.12394  138.00   1   1.040   0.950    27.02     0.02 0  0
     18 1     90.24    23.90      0.00     0.00    1 0.9798288   -21.41353  138.00   1   1.040   0.950    26.66     0.12 0  0
     19 1     93.17    28.84      0.00     0.00    1 0.9803264   -19.79412  138.00   1   1.040   0.950    27.15    -0.00 0  0
     20 1     90.90    28.28      0.00     0.00    1 0.9959804   -16.99505   69.00   1   1.040   0.950    27.15    -0.00 0  0
     21 1    128.60    33.70      0.00     0.00    1 0.9712851   -22.80270  138.00   1   1.040   0.950    27.14    -0.00 0  0
     22 1    114.81    36.41      0.00     0.00    1 0.9897584    -8.30778  230.00   1   1.040   0.950    27.15    -0.00 0  0
     23 1     87.45    25.48      0.00     0.00    1 0.9934543   -10.67052  230.00   1   1.040   0.950    27.15    -0.00 0  0
     24 2    104.88    36.58      0.00     0.00    1 1.0042170   -13.63543  230.00   1   1.060   1.000    27.15    -0.00 0  0
     25 1     69.89    16.85      0.00     0.00    1 1.0053298   -24.23780  230.00   1   1.040   0.950    27.17    -0.00 0  0
     26 2     85.95    23.64      0.00     0.00    1 1.0200000   -34.24801  345.00   1   1.060   1.000    27.16    -0.01 0  0
     27 1     89.44    24.75      0.00     0.00    1 0.9884616   -32.41102  230.00   1   1.040   0.950    27.14     0.00 0  0
     28 2    130.99    37.20      0.00     0.00    1 1.0200000   -28.25272  138.00   1   1.060   1.000    27.15     0.00 0  0
     29 1     81.99    22.32      0.00     0.00    1 1.0155092   -26.07971  138.00   1   1.040   0.950    27.15    -0.00 0  0
     30 2      0.00     0.00      0.00     0.00    1 1.0200000   -22.39808   14.00   1   1.060   1.000    27.19     0.00 0  0
     31 2      0.00     0.00      0.00     0.00    1 1.0200000    -6.68973   14.00   1   1.060   1.000    27.15     0.00 0  0
     32 2      0.00     0.00      0.00     0.00    1 1.0200000     2.47732   14.00   1   1.060   1.000    27.15     0.00 0  0
     33 2    120.54    31.86      0.00     0.00    1 1.0055735   -16.54154   14.00   1   1.060   1.000    27.15    -0.00 0  0
     34 2     74.86    23.10      0.00     0.00    1 1.0200000   -13.68747   14.00   1   1.060   1.000    27.15     0.00 0  0
     35 2      0.00     0.00      0.00     0.00    1 1.0200000     2.09371   14.00   1   1.060   1.000    27.15     0.00 0  0
     36 2      0.00     0.00      0.00     0.00    1 1.0200000    -7.72760   14.00   1   1.060   1.000    27.15     0.00 0  0
     37 2      0.00     0.00      0.00     0.00    1 1.0200000   -22.47048   14.00   1   1.060   1.000    27.17     0.00 0  0
     38 2      0.00     0.00      0.00     0.00    1 1.0200000   -23.61225   14.00   1   1.060   1.000    27.15     0.00 0  0
     39 1     79.83    24.25      0.00     0.00    1 1.0203240   -31.40511  345.00   1   1.040   0.950    27.17    -0.02 0  0
     40 1     81.74    27.05      0.00     0.00    1 1.0103134   -35.50588  345.00   1   1.040   0.950    27.16    -0.01 0  0
     41 1    106.76    28.18      0.00     0.00    1 0.9920974   -31.73184  345.00   1   1.040   0.950    27.14     0.00 0  0
     42 1    118.30    33.69      0.00     0.00    1 1.0204267   -37.36032  345.00   1   1.040   0.950    27.15    -0.01 0  0
     43 1    105.39    31.87      0.00     0.00    1 1.0168073   -34.48093  345.00   1   1.040   0.950    27.16    -0.01 0  0
     44 1     75.13    21.52      0.00     0.00    1 1.0083673   -23.56679  230.00   1   1.040   0.950    27.16    -0.00 0  0
     45 1    107.53    29.35      0.00     0.00    1 1.0148679   -23.29563  345.00   1   1.040   0.950    27.17    -0.00 0  0
     46 1     96.55    29.27      0.00     0.00    1 0.9630960   -25.39676  138.00   1   1.040   0.950    27.16    -0.00 0  0
     47 1     87.12    26.36      0.00     0.00    1 0.9260996   -28.88031  138.00   1   1.040   0.950    27.16    -0.00 0  0
     48 1    104.22    33.89      0.00     0.00    1 0.9756403   -25.76033  345.00   1   1.040   0.950    27.17    -0.01 0  0
     49 2     68.74    23.86      0.00     0.00    1 1.0200000   -19.43952  138.00   1   1.060   1.000    27.16     0.00 0  0
     50 1    101.21    29.17      0.00     0.00    1 0.9869683   -24.43503  138.00   1   1.040   0.950    27.17    -0.00 0  0
     51 1     85.55    29.92      0.00     0.00    1 0.9717081   -28.45004  138.00   1   1.040   0.950    27.16    -0.00 0  0
     52 2    108.95    33.16      0.00     0.00    1 1.0200000   -23.05797  345.00   1   1.060   1.000    27.17     0.00 0  0
     53 1    157.78    40.55      0.00     0.00    1 0.9694885   -27.49267  138.00   1   1.040   0.950    27.16    -0.00 0  0
     54 2     74.31    30.04      0.00     0.00    1 1.0200000   -19.39848  230.00   1   1.060   1.000    27.16     0.00 0  0
     55 1    103.82    28.82      0.00     0.00    1 1.0057192   -22.82353  230.00   1   1.040   0.950    27.16    -0.00 0  0
     56 2    115.95    34.09      0.00     0.00    1 1.0128190   -11.82619  345.00   1   1.060   1.000    27.14    -0.00 0  0
     57 1     64.33    21.01      0.00     0.00    1 0.9435830   -27.24774  138.00   1   1.040   0.950    27.16    -0.00 0  0
     58 1    131.28    45.31      0.00     0.00    1 0.9981039   -12.88466  345.00   1   1.040   0.950    27.15    -0.00 0  0
     59 1     83.07    30.83      0.00     0.00    1 1.0056089   -15.24943  345.00   1   1.040   0.950    27.14    -0.00 0  0
     60 1     94.14    31.01      0.00     0.00    1 0.9475354   -25.19718  138.00   1   1.040   0.950    27.16    -0.00 0  0
     61 1    111.43    36.83      0.00     0.00    1 1.0047058   -17.94345  230.00   1   1.040   0.950    27.14    -0.00 0  0
     62 1    103.81    32.50      0.00     0.00    1 0.9918458   -13.74466  345.00   1   1.040   0.950    27.15    -0.00 0  0
     63 1     81.22    26.80      0.00     0.00    1 0.9421312   -27.01452  138.00   1   1.040   0.950    27.16    -0.01 0  0
     64 1    166.54    46.90      0.00     0.00    1 0.9641507   -19.48444  138.00   1   1.040   0.950    27.15    -0.00 0  0
     65 1     71.11    22.37      0.00     0.00    1 0.9993095   -22.67920  138.00   1   1.040   0.950    27.16    -0.00 0  0
     66 1     81.73    24.42      0.00     0.00    1 1.0028684   -12.68106  345.00   1   1.040   0.950    27.15    -0.00 0  0
     67 1     95.20    28.79      0.00     0.00    1 0.9678860   -28.52734  138.00   1   1.040   0.950    27.16    -0.00 0  0
     68 1    113.33    32.82      0.00     0.00    1 0.9788213   -27.05036  138.00   1   1.040   0.950    27.16    -0.00 0  0
     69 2     65.86    23.30      0.00     0.00    1 1.0200000    -4.64751  345.00   1   1.060   1.000    27.15     0.00 0  0
     70 1     90.39    31.29      0.00     0.00    1 1.0071273    -6.75253  138.00   1   1.040   0.950    27.15     0.00 0  0
     71 1     71.60    26.14      0.00     0.00    1 1.0095555   -12.10839  345.00   1   1.040   0.950    27.15    -0.00 0  0
     72 2     63.64    22.99      0.00     0.00    1 0.9732321   -28.36134  138.00   1   1.060   1.000    27.16    -0.00 0  0
     73 1     76.78    27.07      0.00     0.00    1 0.9713628   -28.44244  138.00   1   1.040   0.950    27.16    -0.00 0  0
     74 1     83.92    23.47      0.00     0.00    1 0.9908488   -23.30729  345.00   1   1.040   0.950    27.17    -0.01 0  0
     75 1     88.73    29.74      0.00     0.00    1 0.9670235   -25.65779  138.00   1   1.040   0.950    27.17    -0.01 0  0
     76 2    117.57    28.34      0.00     0.00    1 1.0200000   -11.09921  345.00   1   1.060   1.000    27.15     0.00 0  0
     77 1     84.45    24.46      0.00     0.00    1 0.9936985   -32.28510  138.00   1   1.040   0.950    27.15    -0.00 0  0
     78 2    103.33    28.95      0.00     0.00    1 1.0224960   -38.58273  345.00   1   1.060   1.000    27.15    -0.00 0  0
     79 1    132.39    37.15      0.00     0.00    1 1.0401965   -46.21772  345.00   1   1.040   0.950    27.15    -0.00 0  0
     80 2    109.58    27.08      0.00     0.00    1 1.0207019   -41.64008  345.00   1   1.060   1.000    27.15    -0.00 0  0
     81 1    116.90    29.21      0.00     0.00    1 1.0168304   -39.78789  345.00   1   1.040   0.950    27.15    -0.00 0  0
     82 2     81.71    25.08      0.00     0.00    1 1.0200000   -33.91459  345.00   1   1.060   1.000    27.15     0.00 0  0
     83 1     86.23    28.10      0.00     0.00    1 1.0206428   -32.89473  345.00   1   1.040   0.950    27.15    -0.00 0  0
     84 2     67.17    19.07      0.00     0.00    1 1.0200000   -29.54177  138.00   1   1.060   1.000    27.15     0.00 0  0
     85 1     74.77    23.53      0.00     0.00    1 0.9920636   -31.65378  230.00   1   1.040   0.950    27.15    -0.00 0  0
     86 1    113.06    31.84      0.00     0.00    1 0.9856487   -30.80053  138.00   1   1.040   0.950    27.15    -0.00 0  0
     87 1    126.17    37.43      0.00     0.00    1 1.0448071   -46.40218  345.00   1   1.040   0.950    27.15    -0.00 0  0
     88 1    100.93    33.54      0.00     0.00    1 1.0110340   -29.40625  138.00   1   1.040   0.950    27.15    -0.00 0  0
     89 1     79.34    24.47      0.00     0.00    1 0.9529182   -36.84698  138.00   1   1.040   0.950    27.15    -0.00 0  0
     90 1     73.48    27.59      0.00     0.00    1 0.9828540   -11.44402  230.00   1   1.040   0.950    27.15    -0.00 0  0
     91 1     88.10    25.71      0.00     0.00    1 0.9688041   -13.36280  230.00   1   1.040   0.950    27.15    -0.00 0  0
     92 1     83.02    25.94      0.00     0.00    1 0.9753131   -13.63280  345.00   1   1.040   0.950    27.15    -0.00 0  0
     93 1     92.61    25.61      0.00     0.00    1 0.9769220   -15.00514  345.00   1   1.040   0.950    27.15    -0.00 0  0
     94 1    114.47    35.42      0.00     0.00    1 0.9795856   -21.74049  138.00   1   1.040   0.950    27.15    -0.00 0  0
     95 1    103.89    31.03      0.00     0.00    1 0.9689279   -21.08138  138.00   1   1.040   0.950    27.15    -0.00 0  0
     96 1    118.54    32.05      0.00     0.00    1 0.9701570   -20.57434  138.00   1   1.040   0.950    27.15    -0.00 0  0
     97 1    117.22    33.46      0.00     0.00    1 0.9832220   -17.49373  345.00   1   1.040   0.950    27.15    -0.00 0  0
     98 1    121.63    34.90      0.00     0.00    1 0.9952209   -17.67096  345.00   1   1.040   0.950    27.15    -0.00 0  0
     99 1    116.31    29.53      0.00     0.00    1 0.9750579   -19.27277  345.00   1   1.040   0.950    27.15    -0.00 0  0
    100 1     92.32    30.25      0.00     0.00    1 0.9790022   -10.12105  138.00   1   1.040   0.950    27.15    -0.00 0  0
    101 1     86.92    28.94      0.00     0.00    1 0.9737704   -15.40391  345.00   1   1.040   0.950    27.15    -0.00 0  0
    102 1     60.23    22.39      0.00     0.00    1 0.9678413   -22.51513  138.00   1   1.040   0.950    27.15    -0.00 0  0
    103 2    132.95    34.87      0.00     0.00    1 1.0066328   -19.52826  138.00   1   1.060   1.000    27.15    -0.00 0  0
    104 1     98.98    26.88      0.00     0.00    1 0.9598037   -22.94628  138.00   1   1.040   0.950    27.15    -0.00 0  0
    105 1     76.03    22.91      0.00     0.00    1 0.9708893   -21.39258  138.00   1   1.040   0.950    27.15    -0.00 0  0
    106 1     76.14    27.68      0.00     0.00    1 0.9603143   -23.76274  138.00   1   1.040   0.950    27.15    -0.00 0  0
    107 1     87.57    25.51      0.00     0.00    1 0.9623720   -23.19609  138.00   1   1.040   0.950    27.15    -0.00 0  0
    108 1    140.76    36.82      0.00     0.00    1 0.9611954   -22.94035  230.00   1   1.040   0.950    27.15    -0.00 0  0
    109 1    105.98    34.74      0.00     0.00    1 0.9617388   -25.23294  138.00   1   1.040   0.950    27.15    -0.00 0  0
    110 1     61.27    23.37      0.00     0.00    1 0.9713883   -20.59751  138.00   1   1.040   0.950    27.15    -0.00 0  0
    111 1    103.14    29.71      0.00     0.00    1 0.9742204   -20.71346  345.00   1   1.040   0.950    27.15    -0.00 0  0
    112 1    136.69    37.45      0.00     0.00    1 0.9454120   -25.79597  138.00   1   1.040   0.950    27.15    -0.00 0  0
    113 1     60.10    21.12      0.00     0.00    1 0.9342205   -26.91363  138.00   1   1.040   0.950    27.15    -0.00 0  0
    114 1     62.04    21.53      0.00     0.00    1 0.9666942   -22.24439  138.00   1   1.040   0.950    27.15    -0.00 0  0
    115 1     69.25    23.93      0.00     0.00    1 0.9790001   -13.12281  345.00   1   1.040   0.950    27.15    -0.00 0  0
    116 1    123.71    32.17      0.00     0.00    1 0.9835013   -22.95554  230.00   1   1.040   0.950    27.15    -0.00 0  0
    117 1     95.40    26.24      0.00     0.00    1 0.9826665   -23.83940  138.00   1   1.040   0.950    27.15    -0.00 0  0
    118 1     61.34    24.55      0.00     0.00    1 0.9685587   -21.95983  138.00   1   1.040   0.950    27.15    -0.00 0  0
    119 1    117.78    33.65      0.00     0.00    1 0.9643807   -22.79319  138.00   1   1.040   0.950    27.15    -0.00 0  0
    120 2     75.85    21.95      0.00     0.00    1 0.9894104   -22.78023  230.00   1   1.060   1.000    27.15    -0.00 0  0
    121 1     90.28    24.67      0.00     0.00    1 0.9844807   -23.31297  230.00   1   1.040   0.950    27.15    -0.00 0  0
    122 1     75.79    24.35      0.00     0.00    1 0.9637607   -25.60821  138.00   1   1.040   0.950    27.15    -0.00 0  0
    123 1    107.69    32.80      0.00     0.00    1 0.9893247   -22.17741  230.00   1   1.040   0.950    27.15    -0.00 0  0
    124 1    109.37    30.44      0.00     0.00    1 0.9600698   -26.73632  230.00   1   1.040   0.950    27.15    -0.00 0  0
    125 1    113.96    32.93      0.00     0.00    1 0.9604744   -24.49383  138.00   1   1.040   0.950    27.15    -0.00 0  0
    126 1     96.20    29.34      0.00     0.00    1 0.9674731   -25.66650  230.00   1   1.040   0.950    27.15    -0.00 0  0
    127 1    109.93    28.06      0.00     0.00    1 0.9661633   -26.39588  230.00   1   1.040   0.950    27.15    -0.00 0  0
    128 2    118.39    28.54      0.00     0.00    1 1.0200000   -16.45532  138.00   1   1.060   1.000    27.10     0.00 0  0
    129 1     92.30    26.43      0.00     0.00    1 0.9567981   -24.59590  138.00   1   1.040   0.950    27.14    -0.00 0  0
    130 2     96.93    29.38      0.00     0.00    1 1.0080642   -19.07055  138.00   1   1.060   1.000    27.13    -0.00 0  0
    131 1    130.61    31.34      0.00     0.00    1 0.9486997   -25.75749  138.00   1   1.040   0.950    27.15    -0.00 0  0
    132 1    121.43    27.30      0.00     0.00    1 0.9779350   -23.91773  230.00   1   1.040   0.950    27.16    -0.00 0  0
    133 1     81.10    24.30      0.00     0.00    1 0.9804143   -24.99388  230.00   1   1.040   0.950    27.16    -0.01 0  0
    134 1     94.37    23.59      0.00     0.00    1 0.9715991   -23.82792  230.00   1   1.040   0.950    27.15    -0.00 0  0
    135 1     71.11    25.01      0.00     0.00    1 0.9845753   -20.52446  345.00   1   1.040   0.950    27.15    -0.00 0  0
    136 1     86.92    26.15      0.00     0.00    1 0.9633035   -22.54310  138.00   1   1.040   0.950    27.15    -0.00 0  0
    137 1     70.67    27.59      0.00     0.00    1 0.9900330   -19.41491  345.00   1   1.040   0.950    27.15    -0.00 0  0
    138 1    115.81    31.34      0.00     0.00    1 0.9734812   -19.77285  345.00   1   1.040   0.950    27.15    -0.00 0  0
    139 1    100.65    28.45      0.00     0.00    1 1.0226721   -25.33666  345.00   1   1.040   0.950    27.19    -0.02 0  0
    140 1    130.33    33.70      0.00     0.00    1 0.9916731    -8.58352  138.00   1   1.040   0.950    27.15    -0.00 0  0
    141 2    119.14    32.71      0.00     0.00    1 1.0200000    -4.59536  345.00   1   1.060   1.000    27.15     0.00 0  0
    142 1     81.26    24.79      0.00     0.00    1 0.9646528   -26.13772  230.00   1   1.040   0.950    27.15    -0.00 0  0
    143 2    113.51    33.28      0.00     0.00    1 1.0096328   -18.28696  230.00   1   1.060   1.000    27.14    -0.00 0  0
    144 1    133.13    32.39      0.00     0.00    1 1.0010368   -19.63853  230.00   1   1.040   0.950    27.14    -0.00 0  0
    145 1    105.62    30.16      0.00     0.00    1 0.9885161   -20.41261  138.00   1   1.040   0.950    27.08     0.00 0  0
    146 2    112.44    30.93      0.00     0.00    1 0.9951214   -18.63082  345.00   1   1.060   1.000    27.15    -0.00 0  0
    147 1     74.55    22.03      0.00     0.00    1 0.9598256   -23.43941  138.00   1   1.040   0.950    27.15    -0.00 0  0
    148 1     84.33    24.46      0.00     0.00    1 0.9780273   -14.42241  345.00   1   1.040   0.950    27.15    -0.00 0  0
    149 2    136.65    32.21      0.00     0.00    1 1.0200000   -17.88186  138.00   1   1.060   1.000    27.11    -0.00 0  0
    150 1    100.29    27.41      0.00     0.00    1 0.9672893   -27.21122  345.00   1   1.040   0.950    27.17    -0.01 0  0
    151 1     86.31    27.38      0.00     0.00    1 0.9920773   -19.19157  345.00   1   1.040   0.950    27.15    -0.00 0  0
    152 1     71.32    20.00      0.00     0.00    1 0.9423260   -26.00454  138.00   1   1.040   0.950    27.15    -0.00 0  0
    153 1     81.29    27.92      0.00     0.00    1 0.9819282   -21.01880  345.00   1   1.040   0.950    27.15    -0.00 0  0
    154 1     98.70    30.61      0.00     0.00    1 0.9834110   -30.93554  230.00   1   1.040   0.950    27.15    -0.00 0  0
    155 1     94.76    31.17      0.00     0.00    1 0.9629364   -31.22465  138.00   1   1.040   0.950    27.15    -0.00 0  0
    156 1     96.71    29.71      0.00     0.00    1 1.0027155   -24.66379  345.00   1   1.040   0.950    27.15    -0.00 0  0
    157 2     98.12    32.68      0.00     0.00    1 1.0200000   -22.09510  138.00   1   1.060   1.000    27.15     0.00 0  0
    158 1     96.74    25.48      0.00     0.00    1 0.9887935   -27.09296  138.00   1   1.040   0.950    27.15    -0.00 0  0
    159 1    103.29    29.79      0.00     0.00    1 0.9992261   -28.79917  345.00   1   1.040   0.950    27.14    -0.00 0  0
    160 1    120.58    36.24      0.00     0.00    1 0.9679997   -33.62989  230.00   1   1.040   0.950    27.15    -0.00 0  0
    161 1     66.74    20.37      0.00     0.00    1 0.9910022   -27.41149  138.00   1   1.040   0.950    27.15    -0.00 0  0
    162 2     94.14    29.45      0.00     0.00    1 1.0200000   -19.78224  345.00   1   1.060   1.000    27.15     0.00 0  0
    163 1    115.04    37.98      0.00     0.00    1 0.9991320   -24.60225  230.00   1   1.040   0.950    27.15    -0.00 0  0
    164 1     88.29    30.86      0.00     0.00    1 0.9748383   -25.57408  138.00   1   1.040   0.950    27.15    -0.00 0  0
    165 2     94.80    27.96      0.00     0.00    1 1.0200000   -16.66067  230.00   1   1.060   1.000    27.15     0.00 0  0
    166 2     88.85    26.27      0.00     0.00    1 1.0200000   -22.73970  138.00   1   1.060   1.000    27.15     0.00 0  0
    167 1     89.98    25.66      0.00     0.00    1 1.0257387   -37.20881  345.00   1   1.040   0.950    27.15    -0.00 0  0
    168 1     59.66    22.15      0.00     0.00    1 0.9854680   -25.60377  230.00   1   1.040   0.950    27.17    -0.00 0  0
    169 1     89.85    29.08      0.00     0.00    1 0.9894372   -27.03673  138.00   1   1.040   0.950    27.15    -0.00 0  0
    170 1     99.29    33.33      0.00     0.00    1 0.9516278   -12.34377  138.00   1   1.040   0.950    27.15    -0.00 0  0
    171 1     86.90    25.40      0.00     0.00    1 0.9605806   -11.87867  138.00   1   1.040   0.950    27.15    -0.00 0  0
    172 1    100.33    31.80      0.00     0.00    1 0.9780546    -9.06034  138.00   1   1.040   0.950    27.15    -0.00 0  0
    173 1     89.42    27.41      0.00     0.00    1 0.9755429    -8.59842  138.00   1   1.040   0.950    27.15    -0.00 0  0
    174 1    106.49    32.60      0.00     0.00    1 1.0033954   -13.71005  345.00   1   1.040   0.950    27.15    -0.00 0  0
    175 2     87.28    29.99      0.00     0.00    1 1.0200000   -13.23181  138.00   1   1.060   1.000    27.15     0.00 0  0
    176 2    104.06    33.31      0.00     0.00    1 1.0045737   -18.57792  345.00   1   1.060   1.000    27.15    -0.00 0  0
    177 1    145.05    49.01      0.00     0.00    1 0.9956978   -14.80785  230.00   1   1.040   0.950    27.15    -0.00 0  0
    178 1     79.90    23.79      0.00     0.00    1 0.9820681   -18.25751  138.00   1   1.040   0.950    27.15    -0.00 0  0
    179 1      7.42     2.27      0.00     0.00    1 0.9811138   -18.32527  138.00   1   1.040   0.950    27.15    -0.00 0  0
    180 1     10.99     3.27      0.00     0.00    1 1.0033558   -13.76588  345.00   1   1.040   0.950    27.15    -0.00 0  0
    181 1      0.00     0.00      0.00     0.00    1 1.0304278   -17.88791  345.00   1   1.040   0.950    27.24    -0.08 0  0
    182 1      0.00     0.00      0.00     0.00    1 0.9922200   -22.95350  345.00   1   1.040   0.950    27.17    -0.01 0  0
    183 1      0.00     0.00      0.00     0.00    1 1.0041450   -22.93750  345.00   1   1.040   0.950    27.17    -0.00 0  0
    184 1      0.00     0.00      0.00     0.00    1 1.0097992   -13.23881  230.00   1   1.040   0.950    27.15     0.00 0  0
    185 1      0.00     0.00      0.00     0.00    1 1.0049314   -11.22358  345.00   1   1.040   0.950    27.15    -0.00 0  0
    186 1      0.00     0.00      0.00     0.00    1 1.0009844   -23.41366  345.00   1   1.040   0.950    27.16    -0.00 0  0
    187 1      0.00     0.00      0.00     0.00    1 1.0164396   -21.34316  345.00   1   1.040   0.950    27.16    -0.00 0  0
    188 1      0.00     0.00      0.00     0.00    1 1.0157992    -3.89049  345.00   1   1.040   0.950    27.15    -0.00 0  0
    189 1      0.00     0.00      0.00     0.00    1 1.0155039    -4.52992  345.00   1   1.040   0.950    27.15    -0.00 0  0
    190 1      0.00     0.00      0.00     0.00    1 1.0120030   -10.30559  345.00   1   1.040   0.950    27.15    -0.00 0  0
    191 1      0.00     0.00      0.00     0.00    1 1.0093890   -14.38184  345.00   1   1.040   0.950    27.14    -0.00 0  0
    192 1      0.00     0.00      0.00     0.00    1 1.0029697   -18.85695  230.00   1   1.040   0.950    27.14     0.00 0  0
    193 1      0.00     0.00      0.00     0.00    1 1.0062328   -17.85263  345.00   1   1.040   0.950    27.13     0.00 0  0
    194 1      0.00     0.00      0.00     0.00    1 1.0035599   -19.93326  345.00   1   1.040   0.950    27.12     0.01 0  0
    195 1      0.00     0.00      0.00     0.00    1 0.9697507   -21.63622  230.00   1   1.040   0.950    27.15    -0.00 0  0
    196 1      0.00     0.00      0.00     0.00    1 0.9747202   -19.84958  345.00   1   1.040   0.950    27.15    -0.00 0  0
    197 1      0.00     0.00      0.00     0.00    1 0.9771921   -22.24340  230.00   1   1.040   0.950    27.15    -0.00 0  0
    198 1      0.00     0.00      0.00     0.00    1 0.9767111   -19.59049  345.00   1   1.040   0.950    27.15    -0.00 0  0
    199 1      0.00     0.00      0.00     0.00    1 0.9836996   -12.46839  345.00   1   1.040   0.950    27.15    -0.00 0  0
    200 1      0.00     0.00      0.00     0.00    1 1.0004039   -15.43943  345.00   1   1.040   0.950    27.15    -0.00 0  0
...
];

%% generator data 
mpc.gen = [
      1      4.14    -52.00     35.00    -52.00  1.0200    100.00 1    338.00      3.00     81.31   9999.90   -500.00   1500.00   -500.00   1500.00 0 0 0 0   0.0000 0 0 0 0
      3    411.08     -2.12    157.00   -141.00  1.0200    100.00 1    686.00    298.00      0.00      0.00      0.00      0.00      0.00      0.00 0 0 0 0   0.0000 0 0 0 0
      7    191.74    169.00    169.00   -138.00  1.0200    100.00 1    674.00    139.00      0.00      0.00      0.00      0.00      0.00      0.00 0 0 0 0   0.0000 0 0 0 0
      8    260.72    163.76    240.00   -125.00  1.0200    100.00 1    611.00    189.00      0.00      0.00      0.00      0.00      0.00      0.00 0 0 0 0   0.0000 0 0 0 0
     10   2160.53    214.85    594.00   -242.00  1.0200    100.00 1   2271.00   1406.00      0.00      0.00      0.00      0.00      0.00      0.00 0 0 0 0   0.0000 0 0 0 0
     24    397.28    114.00    114.00   -108.00  1.0200    100.00 1    541.00    288.00      0.00      0.00      0.00      0.00      0.00      0.00 0 0 0 0   0.0000 0 0 0 0
     26    165.53     22.44     81.00    -66.00  1.0200    100.00 1    300.00    120.00      0.00      0.00      0.00      0.00      0.00      0.00 0 0 0 0   0.0000 0 0 0 0
     28    297.96     84.12    181.00   -120.00  1.0200    100.00 1    592.00    216.00      0.00      0.00      0.00      0.00      0.00      0.00 0 0 0 0   0.0000 0 0 0 0
     30    172.43    -54.97     89.00    -59.00  1.0200    100.00 1    263.00    125.00      0.00      0.00      0.00      0.00      0.00      0.00 0 0 0 0   0.0000 0 0 0 0
     31    332.45     60.13    179.00   -165.00  1.0200    100.00 1    800.00    241.00      0.00      0.00      0.00      0.00      0.00      0.00 0 0 0 0   0.0000 0 0 0 0
     32    224.85      4.86    171.00   -140.00  1.0200    100.00 1    683.00    163.00      0.00      0.00      0.00      0.00      0.00      0.00 0 0 0 0   0.0000 0 0 0 0
     33    522.81    202.00    202.00   -134.00  1.0200    100.00 1    664.00    379.00      0.00      0.00      0.00      0.00      0.00      0.00 0 0 0 0   0.0000 0 0 0 0
     34    406.94    152.01    391.00   -136.00  1.0200    100.00 1   1237.00    295.00      0.00      0.00      0.00      0.00      0.00      0.00 0 0 0 0   0.0000 0 0 0 0
     35   1274.61    331.72    416.00   -151.00  1.0200    100.00 1   1386.00    924.00      0.00      0.00      0.00      0.00      0.00      0.00 0 0 0 0   0.0000 0 0 0 0
     36    193.12    100.91    142.00   -117.00  1.0200    100.00 1    588.00    140.00      0.00      0.00      0.00      0.00      0.00      0.00 0 0 0 0   0.0000 0 0 0 0
     37    137.95     63.03    213.00   -116.00  1.0200    100.00 1    567.00    100.00      0.00      0.00      0.00      0.00      0.00      0.00 0 0 0 0   0.0000 0 0 0 0
     38    286.93     20.80    202.00   -178.00  1.0200    100.00 1    872.00    208.00      0.00      0.00      0.00      0.00      0.00      0.00 0 0 0 0   0.0000 0 0 0 0
     49    441.42    119.97    164.00   -129.00  1.0200    100.00 1    607.00    320.00      0.00      0.00      0.00      0.00      0.00      0.00 0 0 0 0   0.0000 0 0 0 0
     52    223.47    207.87    630.00   -166.00  1.0200    100.00 1   1642.00    162.00      0.00      0.00      0.00      0.00      0.00      0.00 0 0 0 0   0.0000 0 0 0 0
     54    286.93     16.86    198.00   -113.00  1.0200    100.00 1    546.00    208.00      0.00      0.00      0.00      0.00      0.00      0.00 0 0 0 0   0.0000 0 0 0 0
     56    573.85    151.00    151.00   -150.00  1.0200    100.00 1    728.00    416.00      0.00      0.00      0.00      0.00      0.00      0.00 0 0 0 0   0.0000 0 0 0 0
     69    205.54    146.64    150.00   -103.00  1.0200    100.00 1    520.00    149.00      0.00      0.00      0.00      0.00      0.00      0.00 0 0 0 0   0.0000 0 0 0 0
     72    117.25     79.00     79.00    -57.00  1.0200    100.00 1    263.00     85.00      0.00      0.00      0.00      0.00      0.00      0.00 0 0 0 0   0.0000 0 0 0 0
     76    600.06    261.28    278.00   -182.00  1.0200    100.00 1    882.00    435.00      0.00      0.00      0.00      0.00      0.00      0.00 0 0 0 0   0.0000 0 0 0 0
     78    179.33    -62.00     52.00    -62.00  1.0200    100.00 1    288.00    130.00      0.00      0.00      0.00      0.00      0.00      0.00 0 0 0 0   0.0000 0 0 0 0
     80    155.88    -67.00    175.00    -67.00  1.0200    100.00 1    578.00    113.00      0.00      0.00      0.00      0.00      0.00      0.00 0 0 0 0   0.0000 0 0 0 0
     82    242.78    -31.89    119.00    -58.00  1.0200    100.00 1    313.00    176.00      0.00      0.00      0.00      0.00      0.00      0.00 0 0 0 0   0.0000 0 0 0 0
     84    233.13     43.75    194.00   -180.00  1.0200    100.00 1    888.00    169.00      0.00      0.00      0.00      0.00      0.00      0.00 0 0 0 0   0.0000 0 0 0 0
    103    286.93    212.00    212.00   -188.00  1.0200    100.00 1    916.00    208.00      0.00      0.00      0.00      0.00      0.00      0.00 0 0 0 0   0.0000 0 0 0 0
    120    222.09    196.00    196.00   -172.00  1.0200    100.00 1    845.00    161.00      0.00      0.00      0.00      0.00      0.00      0.00 0 0 0 0   0.0000 0 0 0 0
    128    248.30     39.21    104.00    -76.00  1.0200    100.00 1    378.00    180.00      0.00      0.00      0.00      0.00      0.00      0.00 0 0 0 0   0.0000 0 0 0 0
    130    158.64     87.00     87.00    -56.00  1.0200    100.00 1    267.00    115.00      0.00      0.00      0.00      0.00      0.00      0.00 0 0 0 0   0.0000 0 0 0 0
    141   1209.78    329.50    452.00   -174.00  1.0200    100.00 1   1691.00    877.00      0.00      0.00      0.00      0.00      0.00      0.00 0 0 0 0   0.0000 0 0 0 0
    143    213.82     99.00     99.00    -60.00  1.0200    100.00 1    303.00    155.00      0.00      0.00      0.00      0.00      0.00      0.00 0 0 0 0   0.0000 0 0 0 0
    146    413.84    137.00    137.00   -122.00  1.0200    100.00 1    607.00    300.00      0.00      0.00      0.00      0.00      0.00      0.00 0 0 0 0   0.0000 0 0 0 0
    149    256.58     65.80     73.00    -57.00  1.0200    100.00 1    274.00    186.00      0.00      0.00      0.00      0.00      0.00      0.00 0 0 0 0   0.0000 0 0 0 0
    157    397.28     90.85    173.00   -110.00  1.0200    100.00 1    521.00    288.00      0.00      0.00      0.00      0.00      0.00      0.00 0 0 0 0   0.0000 0 0 0 0
    162    317.27    153.94    176.00   -130.00  1.0200    100.00 1    636.00    230.00      0.00      0.00      0.00      0.00      0.00      0.00 0 0 0 0   0.0000 0 0 0 0
    165   1078.73    156.25    402.00   -141.00  1.0200    100.00 1   1304.00    782.00      0.00      0.00      0.00      0.00      0.00      0.00 0 0 0 0   0.0000 0 0 0 0
    166    382.11    141.85    202.00   -168.00  1.0200    100.00 1    830.00    277.00      0.00      0.00      0.00      0.00      0.00      0.00 0 0 0 0   0.0000 0 0 0 0
    175    288.31    107.52    233.00   -128.00  1.0200    100.00 1    626.00    209.00      0.00      0.00      0.00      0.00      0.00      0.00 0 0 0 0   0.0000 0 0 0 0
    176    118.63     86.00     86.00    -56.00  1.0200    100.00 1    267.00     86.00      0.00      0.00      0.00      0.00      0.00      0.00 0 0 0 0   0.0000 0 0 0 0
];

%% generator cost data
mpc.gencost = [
2 0 0 4   0.0000    0.001   17.500   450.00
2 0 0 4   0.0000    0.001   24.757  1505.67
2 0 0 4   0.0000    0.002   24.400  3342.77
2 0 0 4   0.0000    0.005   30.562  1114.42
2 0 0 4   0.0000    0.001   25.697  6313.07
2 0 0 4   0.0000    0.002   27.100  1297.89
2 0 0 4   0.0000    0.005   27.249   783.88
2 0 0 4   0.0000    0.002   26.174  1372.76
2 0 0 4   0.0000    0.006   26.053   655.13
2 0 0 4   0.0000    0.002   29.298  3418.85
2 0 0 4   0.0000    0.002   29.135  1458.22
2 0 0 4   0.0000    0.001   23.899  4734.80
2 0 0 4   0.0000    0.004   29.960  3677.05
2 0 0 4   0.0000    0.001   26.605  6691.85
2 0 0 4   0.0000    0.002   26.400  3342.77
2 0 0 4   0.0000    0.004   52.785  7415.02
2 0 0 4   0.0000    0.003   27.114  3844.19
2 0 0 4   0.0000    0.002   25.878  1390.96
2 0 0 4   0.0000    0.003   21.871  2841.36
2 0 0 4   0.0000    0.002   26.558  1284.25
2 0 0 4   0.0000    0.001   24.540  1581.44
2 0 0 4   0.0000    0.002   25.780  3523.95
2 0 0 4   0.0000    0.003   22.330  2325.41
2 0 0 4   0.0000    0.001   25.323  1978.07
2 0 0 4   0.0000    0.005   26.473   732.25
2 0 0 4   0.0000    0.002   26.356  1347.98
2 0 0 4   0.0000    0.008   27.364   550.89
2 0 0 4   0.0000    0.004   31.864  3610.20
2 0 0 4   0.0000    0.001   25.117  2036.75
2 0 0 4   0.0000    0.004   32.314  3777.33
2 0 0 4   0.0000    0.004   26.167   947.57
2 0 0 4   0.0000    0.006   27.791   710.04
2 0 0 4   0.0000    0.003   27.697  4313.07
2 0 0 4   0.0000    0.005   26.616   773.70
2 0 0 4   0.0000    0.002   26.010  1398.04
2 0 0 4   0.0000    0.006   27.475   721.30
2 0 0 4   0.0000    0.006   32.756  1215.71
2 0 0 4   0.0000    0.002   25.916  1460.47
2 0 0 4   0.0000    0.001   26.918  6534.03
2 0 0 4   0.0000    0.001   25.325  1860.51
2 0 0 4   0.0000    0.002   25.962  1438.95
2 0 0 4   0.0000    0.006   27.924   713.43
];

%% branch data
mpc.branch = [
      1       2  0.005978  0.120624   1.98515    414.51    414.51    414.51 1.00000    0.000 1    0.00    0.00      4.14    -52.00     -3.90   -170.02 0 0 0 0
      2      30  0.000000  0.018100   0.00000   1000.00   1000.00   1000.00 1.00000    0.000 1    0.00    0.00   -172.43     60.67    172.43    -54.97 0 0 0 0
      2      39  0.008680  0.060198   0.52937    530.03    530.03    530.03 1.00000    0.000 1    0.00    0.00    221.90    -29.00   -217.87      1.28 0 0 0 0
      2     139  0.003390  0.023178   0.20974    530.03    530.03    530.03 1.00000    0.000 1    0.00    0.00    100.99      8.66   -100.65    -28.45 0 0 0 0
      2     181  0.007607  0.052755   0.46393    530.03    530.03    530.03 1.00000    0.000 1    0.00    0.00   -211.70     17.30    215.04    -43.39 0 0 0 0
      2     201  0.002742  0.018748   0.16965    530.03    530.03    530.03 1.00000    0.000 1    0.00    0.00    -35.99     83.50     36.25    -99.49 0 0 0 0
      3      18  0.003829  0.158129   0.09685    316.20    316.20    316.20 1.00000    0.000 1    0.00    0.00     96.25     25.80    -95.87    -19.96 0 0 0 0
      3     181  0.000638  0.030000   0.00000    400.00    400.00    400.00 1.00000    0.000 1    0.00    0.00    314.83    -27.93   -314.21     56.73 0 0 0 0
      4      75  0.016845  0.038117   0.00951    107.32    107.32    107.32 1.00000    0.000 1    0.00    0.00     24.10     14.25    -23.96    -14.83 0 0 0 0
      4     182  0.000889  0.040000   0.00000    300.00    300.00    300.00 1.00000    0.000 1    0.00    0.00    -97.88    -33.31     97.98     37.79 0 0 0 0
      5       8  0.002959  0.039331   0.08406    578.83    578.83    578.83 1.00000    0.000 1    0.00    0.00   -121.66    -82.53    122.30     82.60 0 0 0 0
      5     183  0.001261  0.046667   0.00000    150.00    150.00    150.00 1.00000    0.000 1    0.00    0.00     11.48    -42.90    -11.45     43.85 0 0 0 0
      5     184  0.045023  0.111012   0.17939    178.87    178.87    178.87 1.00000    0.000 1    0.00    0.00   -128.80     32.53    137.30    -29.39 0 0 0 0
      5     207  0.001124  0.013276   0.03027    541.39    541.39    541.39 1.00000    0.000 1    0.00    0.00    152.13     60.04   -151.81    -59.25 0 0 0 0
      6       7  0.062002  0.145750   0.03365    107.32    107.32    107.32 1.00000    0.000 1    0.00    0.00    111.88    -39.38   -103.38     55.91 0 0 0 0
      6      31  0.000000  0.025000   0.00000   1100.00   1100.00   1100.00 1.00000    0.000 1    0.00    0.00   -332.45    -32.70    332.45     60.13 0 0 0 0
      6      70  0.033638  0.077688   0.01859    107.32    107.32    107.32 1.00000    0.000 1    0.00    0.00    -85.56     42.12     88.59    -37.00 0 0 0 0
      6     184  0.000297  0.014545   0.00000    550.00    550.00    550.00 1.00000    0.000 1    0.00    0.00    233.79     -9.46   -233.63     17.29 0 0 0 0
      6     185  0.000556  0.026667   0.00000    450.00    450.00    450.00 1.00000    0.000 1    0.00    0.00     -6.36     13.86      6.36    -13.80 0 0 0 0
      7     186  0.000336  0.017143   0.00000    700.00    700.00    700.00 1.00000    0.000 1    0.00    0.00    161.76     59.58   -161.66    -54.60 0 0 0 0
      8      54  0.000326  0.005080   0.01216    665.28    665.28    665.28 1.00000    0.000 1    0.00    0.00   -212.47     14.13    212.61    -13.18 0 0 0 0
      8     187  0.000196  0.010000   0.00000    700.00    700.00    700.00 1.00000    0.000 1    0.00    0.00    244.51     34.39   -244.39    -28.53 0 0 0 0
    187       9  0.006838  0.047422   0.41703    530.03    530.03    530.03 1.00000    0.000 1    0.00    0.00      0.03    -43.30      0.00      0.00 0 0 0 0
     10      11  0.000315  0.008557   0.00495    566.01    566.01    566.01 1.00000    0.000 1    0.00    0.00    246.71     32.83   -246.52    -28.25 0 0 0 0
     10      32  0.000000  0.020000   0.00000   1000.00   1000.00   1000.00 1.00000    0.000 1    0.00    0.00   -224.85      4.86    224.85      4.86 0 0 0 0
     10      70  0.005799  0.067267   0.02063    324.83    324.83    324.83 1.00000    0.000 1    0.00    0.00    180.82     13.45   -178.98      5.71 0 0 0 0
     10     188  0.000073  0.003750   0.00000   3200.00   3200.00   3200.00 1.00000    0.000 1    0.00    0.00   1877.44    141.13  -1874.93    -13.37 0 0 0 0
     12      11  0.001279  0.043500   0.00000    100.00    100.00    100.00 1.00000    0.000 1    0.00    0.00    -38.34     -0.96     38.36      1.58 0 0 0 0
     11     173  0.016673  0.124076   0.03486    237.35    237.35    237.35 1.00000    0.000 1    0.00    0.00    106.98     24.25   -105.02    -13.16 0 0 0 0
     11     189  0.001500  0.060000   0.00000    200.00    200.00    200.00 1.00000    0.000 1    0.00    0.00    101.19      2.42   -101.04      3.53 0 0 0 0
     12      13  0.003529  0.120000   0.00000    100.00    100.00    100.00 1.00000    0.000 1    0.00    0.00     35.94      0.20    -35.89      1.30 0 0 0 0
    188      13  0.000109  0.001949   0.02003   1045.73   1045.73   1045.73 1.00000    0.000 1    0.00    0.00    547.30     10.42   -546.98     -6.82 0 0 0 0
     13     190  0.000846  0.017908   0.26779   1060.07   1060.07   1060.07 1.00000    0.000 1    0.00    0.00    582.88      5.52   -580.08     26.09 0 0 0 0
     14      15  0.036111  0.089040   0.14388    178.87    178.87    178.87 1.00000    0.000 1    0.00    0.00     75.06    -25.24    -72.95     15.86 0 0 0 0
     14     177  0.018818  0.067761   0.11459    229.46    229.46    229.46 1.00000    0.000 1    0.00    0.00     74.60     -2.71    -73.57     -5.12 0 0 0 0
     14     190  0.000233  0.011667   0.00000    600.00    600.00    600.00 1.00000    0.000 1    0.00    0.00   -253.42     -4.55    253.57     11.89 0 0 0 0
     15      61  0.004135  0.027504   0.05200    353.36    353.36    353.36 1.00000    0.000 1    0.00    0.00    113.19    -27.47   -112.64     25.91 0 0 0 0
    184      15  0.003431  0.042042   0.08894    541.39    541.39    541.39 1.00000    0.000 1    0.00    0.00    121.64      7.20   -121.13    -10.04 0 0 0 0
     15     191  0.002059  0.070000   0.00000    100.00    100.00    100.00 1.00000    0.000 1    0.00    0.00    -43.90     -8.57     43.94      9.96 0 0 0 0
     16     149  0.014227  0.046950   0.01231    137.68    137.68    137.68 1.00000    0.000 1    0.00    0.00    -64.37    -21.41     65.02     22.30 0 0 0 0
     16     192  0.001000  0.040000   0.00000    200.00    200.00    200.00 1.00000    0.000 1    0.00    0.00    -24.44     -4.88     24.45      5.13 0 0 0 0
     16     193  0.001116  0.048000   0.00000    250.00    250.00    250.00 1.00000    0.000 1    0.00    0.00    -57.32     -9.37     57.35     10.98 0 0 0 0
     17      18  0.056699  0.194499   0.04709    137.68    137.68    137.68 1.00000    0.000 1    0.00    0.00     -5.61     -0.51      5.63     -3.94 0 0 0 0
     17     145  0.046728  0.104525   0.02669    107.32    107.32    107.32 1.00000    0.000 1    0.00    0.00    -25.90      2.70     26.23     -4.54 0 0 0 0
     17     194  0.002162  0.080000   0.00000    150.00    150.00    150.00 1.00000    0.000 1    0.00    0.00    -47.71    -26.70     47.78     29.19 0 0 0 0
     19      20  0.000426  0.020000   0.00000    400.00    400.00    400.00 1.00000    0.000 1    0.00    0.00   -239.80    -65.80    240.08     78.67 0 0 0 0
     19      33  0.000700  0.014200   0.00000   1000.00   1000.00   1000.00 1.00000    0.000 1    0.00    0.00   -400.95   -143.35    402.27    170.14 0 0 0 0
     19      96  0.055097  0.129519   0.02990    107.32    107.32    107.32 1.00000    0.000 1    0.00    0.00     11.26      1.54    -11.19     -4.20 0 0 0 0
     19     105  0.000528  0.012761   0.00724    522.03    522.03    522.03 1.00000    0.000 1    0.00    0.00    210.81     66.32   -210.54    -60.52 0 0 0 0
     19     110  0.005086  0.023707   0.00609    173.53    173.53    173.53 1.00000    0.000 1    0.00    0.00     61.51     23.87    -61.27    -23.37 0 0 0 0
     19     118  0.000642  0.013449   0.00755    474.70    474.70    474.70 1.00000    0.000 1    0.00    0.00    270.52     77.55   -269.99    -67.18 0 0 0 0
     19     175  0.056202  0.251624   0.07017    173.53    173.53    173.53 1.00000    0.000 1    0.00    0.00    -45.99     -5.95     47.23      4.49 0 0 0 0
     19     195  0.002353  0.080000   0.00000    100.00    100.00    100.00 1.00000    0.000 1    0.00    0.00     38.57     12.44    -38.53    -11.07 0 0 0 0
     19     196  0.003529  0.120000   0.00000    100.00    100.00    100.00 1.00000    0.000 1    0.00    0.00      0.90      4.55     -0.90     -4.53 0 0 0 0
     20      34  0.000900  0.018000   0.00000    600.00    600.00    600.00 1.00000    0.000 1    0.00    0.00   -330.98   -106.96    332.08    128.91 0 0 0 0
     21     129  0.006980  0.035005   0.01005    187.39    187.39    187.39 1.00000    0.000 1    0.00    0.00     87.86     23.50    -87.24    -21.36 0 0 0 0
     21     130  0.007383  0.060698   0.01884    261.01    261.01    261.01 1.00000    0.000 1    0.00    0.00   -110.11    -42.93    111.20     50.02 0 0 0 0
     21     197  0.001441  0.053333   0.00000    150.00    150.00    150.00 1.00000    0.000 1    0.00    0.00    -17.65    -10.20     17.65     10.43 0 0 0 0
     21     198  0.001500  0.060000   0.00000    200.00    200.00    200.00 1.00000    0.000 1    0.00    0.00    -88.70     -4.08     88.82      9.10 0 0 0 0
     22      23  0.013985  0.034482   0.05572    178.87    178.87    178.87 1.00000    0.000 1    0.00    0.00     98.10    -50.70    -96.40     49.42 0 0 0 0
     22      35  0.000000  0.014300   0.00000   1950.00   1950.00   1950.00 1.00000    0.000 1    0.00    0.00  -1274.61    -93.29   1274.61    331.72 0 0 0 0
     22     199  0.000131  0.006667   0.00000   1050.00   1050.00   1050.00 1.00000    0.000 1    0.00    0.00   1061.70    107.58  -1060.18    -30.08 0 0 0 0
     23      24  0.043009  0.106048   0.17137    178.87    178.87    178.87 1.00000    0.000 1    0.00    0.00     38.71    -32.98    -37.80     18.14 0 0 0 0
     23      36  0.000500  0.027200   0.00000   1000.00   1000.00   1000.00 1.00000    0.000 1    0.00    0.00   -192.90    -88.50    193.12    100.91 0 0 0 0
     23      90  0.006901  0.020365   0.03648    206.75    206.75    206.75 1.00000    0.000 1    0.00    0.00     73.91     25.30    -73.48    -27.59 0 0 0 0
     23      91  0.012793  0.054395   0.09557    262.53    262.53    262.53 1.00000    0.000 1    0.00    0.00     89.22     21.27    -88.10    -25.71 0 0 0 0
     24     177  0.002078  0.014281   0.02528    353.36    353.36    353.36 1.00000    0.000 1    0.00    0.00    149.04     38.41   -148.55    -37.57 0 0 0 0
     24     200  0.000372  0.017500   0.00000    400.00    400.00    400.00 1.00000    0.000 1    0.00    0.00    181.16     20.87   -181.04    -15.10 0 0 0 0
     25      37  0.000600  0.023200   0.00000   1000.00   1000.00   1000.00 1.00000    0.000 1    0.00    0.00   -137.81    -57.90    137.95     63.03 0 0 0 0
     25     133  0.006133  0.048676   0.09258    395.58    395.58    395.58 1.00000    0.000 1    0.00    0.00     32.71     42.84    -32.50    -50.36 0 0 0 0
     25     168  0.018164  0.045274   0.07160    178.87    178.87    178.87 1.00000    0.000 1    0.00    0.00     60.39     16.88    -59.66    -22.15 0 0 0 0
     25     201  0.001261  0.046667   0.00000    150.00    150.00    150.00 1.00000    0.000 1    0.00    0.00    -25.17    -18.66     25.18     19.12 0 0 0 0
     26      42  0.007136  0.049490   0.43522    530.03    530.03    530.03 1.00000    0.000 1    0.00    0.00    112.17    -36.59   -111.30     -2.63 0 0 0 0
     26      43  0.001333  0.009112   0.08245    530.03    530.03    530.03 1.00000    0.000 1    0.00    0.00     50.43     24.17    -50.39    -32.43 0 0 0 0
     26     202  0.010447  0.072454   0.63716    530.03    530.03    530.03 1.00000    0.000 1    0.00    0.00    -83.02     11.23     83.91    -69.99 0 0 0 0
     27     160  0.022175  0.054676   0.08835    178.87    178.87    178.87 1.00000    0.000 1    0.00    0.00     44.99     14.83    -44.45    -21.94 0 0 0 0
     27     202  0.000519  0.023333   0.00000    300.00    300.00    300.00 1.00000    0.000 1    0.00    0.00   -134.43    -39.58    134.54     44.27 0 0 0 0
     28      77  0.066564  0.156472   0.03612    107.32    107.32    107.32 1.00000    0.000 1    0.00    0.00     45.32     -2.41    -44.01      1.84 0 0 0 0
     28      88  0.001156  0.018601   0.00608    418.29    418.29    418.29 1.00000    0.000 1    0.00    0.00    114.29     42.87   -114.13    -40.83 0 0 0 0
     28     203  0.005926  0.160000   0.00000     50.00     50.00     50.00 1.00000    0.000 1    0.00    0.00      4.01      4.61     -4.01     -4.55 0 0 0 0
     28     204  0.003529  0.120000   0.00000    100.00    100.00    100.00 1.00000    0.000 1    0.00    0.00      3.34      1.85     -3.34     -1.84 0 0 0 0
     29      38  0.000800  0.015600   0.00000   1200.00   1200.00   1200.00 1.00000    0.000 1    0.00    0.00   -286.29     -8.40    286.93     20.80 0 0 0 0
     29      84  0.009549  0.091679   0.02681    283.00    283.00    283.00 1.00000    0.000 1    0.00    0.00     67.20    -11.29    -66.77     12.62 0 0 0 0
     29     205  0.000209  0.010667   0.00000    750.00    750.00    750.00 1.00000    0.000 1    0.00    0.00    137.11     -2.63   -137.07      4.58 0 0 0 0
     39      43  0.005771  0.040026   0.35199    530.03    530.03    530.03 1.00000    0.000 1    0.00    0.00    138.04    -25.53   -136.98     -3.64 0 0 0 0
     40      43  0.003602  0.023140   0.23770    530.03    530.03    530.03 1.00000    0.000 1    0.00    0.00    -81.74    -27.05     81.98      4.20 0 0 0 0
    202      41  0.002711  0.018804   0.16536    530.03    530.03    530.03 1.00000    0.000 1    0.00    0.00    107.09     14.04   -106.76    -28.18 0 0 0 0
     42     167  0.006872  0.049342   0.40438    530.03    530.03    530.03 1.00000    0.000 1    0.00    0.00     -7.00    -31.06      7.01    -11.20 0 0 0 0
     44      55  0.007424  0.027027   0.04470    229.46    229.46    229.46 1.00000    0.000 1    0.00    0.00    -42.66     19.64     42.82    -23.56 0 0 0 0
     44     206  0.000372  0.017500   0.00000    400.00    400.00    400.00 1.00000    0.000 1    0.00    0.00    -32.47    -41.16     32.48     41.63 0 0 0 0
     45      52  0.000887  0.008362   0.07659    652.53    652.53    652.53 1.00000    0.000 1    0.00    0.00    -57.29    -60.05     57.35     52.64 0 0 0 0
    206      45  0.000420  0.002856   0.02611    530.03    530.03    530.03 1.00000    0.000 1    0.00    0.00     27.51     22.24    -27.50    -24.90 0 0 0 0
     45     212  0.001035  0.009761   0.08940    652.53    652.53    652.53 1.00000    0.000 1    0.00    0.00    -22.74     55.60     22.78    -64.36 0 0 0 0
     46      47  0.016826  0.106284   0.02894    212.01    212.01    212.01 1.00000    0.000 1    0.00    0.00     55.16     25.00    -54.48    -23.30 0 0 0 0
     46     207  0.000370  0.017778   0.00000    450.00    450.00    450.00 1.00000    0.000 1    0.00    0.00   -151.71    -54.27    151.81     59.25 0 0 0 0
     47      63  0.038101  0.089565   0.02068    107.32    107.32    107.32 1.00000    0.000 1    0.00    0.00    -32.64     -3.06     33.12      2.37 0 0 0 0
     48     150  0.003523  0.024436   0.21489    530.03    530.03    530.03 1.00000    0.000 1    0.00    0.00    100.68      9.84   -100.29    -27.41 0 0 0 0
    182      48  0.003417  0.023699   0.20841    530.03    530.03    530.03 1.00000    0.000 1    0.00    0.00    206.45     34.29   -204.90    -43.73 0 0 0 0
     49      65  0.001800  0.037712   0.02118    474.70    474.70    474.70 1.00000    0.000 1    0.00    0.00    155.27     51.77   -154.80    -44.18 0 0 0 0
     49     208  0.001000  0.040000   0.00000    200.00    200.00    200.00 1.00000    0.000 1    0.00    0.00    109.32     17.50   -109.20    -12.79 0 0 0 0
     49     209  0.001500  0.060000   0.00000    200.00    200.00    200.00 1.00000    0.000 1    0.00    0.00    108.09     26.84   -107.91    -19.69 0 0 0 0
     50      65  0.005258  0.037515   0.01148    237.35    237.35    237.35 1.00000    0.000 1    0.00    0.00    -83.30    -20.12     83.69     21.81 0 0 0 0
     50     210  0.003529  0.120000   0.00000    100.00    100.00    100.00 1.00000    0.000 1    0.00    0.00    -17.91     -9.05     17.93      9.55 0 0 0 0
     51      68  0.004060  0.037344   0.01192    283.00    283.00    283.00 1.00000    0.000 1    0.00    0.00    -63.39    -11.42     63.57     11.92 0 0 0 0
     51      72  0.000709  0.007194   0.00234    304.04    304.04    304.04 1.00000    0.000 1    0.00    0.00    -22.16    -18.50     22.17     18.34 0 0 0 0
    183      52  0.002047  0.021637   0.20301    707.51    707.51    707.51 1.00000    0.000 1    0.00    0.00      2.97    -84.09     -2.86     64.46 0 0 0 0
    206      52  0.000643  0.006662   0.06506    707.51    707.51    707.51 1.00000    0.000 1    0.00    0.00    -59.99    -63.87     60.03     57.60 0 0 0 0
     53      57  0.006894  0.059124   0.01683    261.01    261.01    261.01 1.00000    0.000 1    0.00    0.00     -1.64     41.89      1.77    -42.29 0 0 0 0
     53      73  0.003976  0.033438   0.00991    261.01    261.01    261.01 1.00000    0.000 1    0.00    0.00     45.44    -10.92    -45.35     10.76 0 0 0 0
     53     211  0.000369  0.018462   0.00000    650.00    650.00    650.00 1.00000    0.000 1    0.00    0.00   -201.58    -71.52    201.76     80.51 0 0 0 0
     55      61  0.034539  0.120369   0.21762    229.46    229.46    229.46 1.00000    0.000 1    0.00    0.00    -64.95     11.52     66.56    -27.89 0 0 0 0
    208      55  0.006202  0.018912   0.03169    206.75    206.75    206.75 1.00000    0.000 1    0.00    0.00     93.90      7.16    -93.36     -8.75 0 0 0 0
     55     212  0.001261  0.046667   0.00000    150.00    150.00    150.00 1.00000    0.000 1    0.00    0.00     11.67     -8.03    -11.67      8.12 0 0 0 0
    185      56  0.000908  0.009601   0.09009    707.51    707.51    707.51 1.00000    0.000 1    0.00    0.00    102.82    -96.24   -102.65     88.88 0 0 0 0
    191      56  0.000301  0.008151   0.12418   1246.50   1246.50   1246.50 1.00000    0.000 1    0.00    0.00   -559.63    -15.66    560.55     28.03 0 0 0 0
     57      60  0.018675  0.042258   0.01054    107.32    107.32    107.32 1.00000    0.000 1    0.00    0.00    -66.10     21.27     67.11    -19.91 0 0 0 0
     58      62  0.002141  0.014851   0.13060    530.03    530.03    530.03 1.00000    0.000 1    0.00    0.00    104.06     21.30   -103.81    -32.50 0 0 0 0
     58      66  0.001447  0.010038   0.08828    530.03    530.03    530.03 1.00000    0.000 1    0.00    0.00    -41.39    -45.74     41.44     37.25 0 0 0 0
    185      58  0.002185  0.015152   0.13324    530.03    530.03    530.03 1.00000    0.000 1    0.00    0.00    194.78     13.25   -193.95    -20.87 0 0 0 0
    191      59  0.000938  0.006385   0.05837    530.03    530.03    530.03 1.00000    0.000 1    0.00    0.00    244.50     22.67   -243.94    -24.81 0 0 0 0
     59     213  0.000907  0.006172   0.05642    530.03    530.03    530.03 1.00000    0.000 1    0.00    0.00    160.87     -6.02   -160.64      1.90 0 0 0 0
     60      63  0.017610  0.040671   0.00973    107.32    107.32    107.32 1.00000    0.000 1    0.00    0.00     63.61    -14.29    -62.78     15.34 0 0 0 0
     60      64  0.005655  0.040347   0.01235    237.35    237.35    237.35 1.00000    0.000 1    0.00    0.00   -224.86      3.19    228.05     18.41 0 0 0 0
     61     143  0.002057  0.016137   0.03143    395.58    395.58    395.58 1.00000    0.000 1    0.00    0.00     33.25    -36.39    -33.20     33.57 0 0 0 0
    192      61  0.004667  0.025655   0.04713    312.32    312.32    312.32 1.00000    0.000 1    0.00    0.00    -61.72      2.57     61.90     -6.34 0 0 0 0
     61     213  0.000519  0.023333   0.00000    300.00    300.00    300.00 1.00000    0.000 1    0.00    0.00   -160.51      7.87    160.64     -1.90 0 0 0 0
     63      75  0.005417  0.046454   0.01323    261.01    261.01    261.01 1.00000    0.000 1    0.00    0.00    -51.56    -44.51     51.84     45.70 0 0 0 0
     64     214  0.000336  0.017143   0.00000    700.00    700.00    700.00 1.00000    0.000 1    0.00    0.00   -394.59    -65.32    395.17     94.82 0 0 0 0
     66      71  0.001271  0.008811   0.07749    530.03    530.03    530.03 1.00000    0.000 1    0.00    0.00   -123.18    -61.67    123.41     55.45 0 0 0 0
     67      68  0.002882  0.026509   0.00846    283.00    283.00    283.00 1.00000    0.000 1    0.00    0.00    -95.20    -28.79     95.50     30.78 0 0 0 0
     68     215  0.000336  0.017143   0.00000    700.00    700.00    700.00 1.00000    0.000 1    0.00    0.00   -272.40    -75.52    272.68     89.81 0 0 0 0
    189      69  0.001131  0.007735   0.06999    530.03    530.03    530.03 1.00000    0.000 1    0.00    0.00     18.46    -65.31    -18.41     58.37 0 0 0 0
     69     247  0.002929  0.020317   0.17866    530.03    530.03    530.03 1.00000    0.000 1    0.00    0.00    158.09     64.97   -157.23    -77.26 0 0 0 0
     71      76  0.001422  0.009863   0.08674    530.03    530.03    530.03 1.00000    0.000 1    0.00    0.00   -195.01    -81.59    195.62     76.91 0 0 0 0
     72      73  0.000275  0.004586   0.00284    424.03    424.03    424.03 1.00000    0.000 1    0.00    0.00     31.44     37.67    -31.44    -37.82 0 0 0 0
    182      74  0.000498  0.003455   0.03038    530.03    530.03    530.03 1.00000    0.000 1    0.00    0.00    177.78     12.79   -177.62    -14.66 0 0 0 0
    210      74  0.001292  0.011415   0.10343    623.25    623.25    623.25 1.00000    0.000 1    0.00    0.00     23.21     62.21    -23.14    -71.86 0 0 0 0
     74     216  0.000640  0.004357   0.03984    530.03    530.03    530.03 1.00000    0.000 1    0.00    0.00    116.84     63.05   -116.73    -66.16 0 0 0 0
     75     216  0.000638  0.030000   0.00000    400.00    400.00    400.00 1.00000    0.000 1    0.00    0.00   -116.61    -60.62    116.73     66.16 0 0 0 0
    190      76  0.001435  0.009955   0.08755    530.03    530.03    530.03 1.00000    0.000 1    0.00    0.00    129.35   -103.43   -128.97     96.97 0 0 0 0
     76     238  0.003386  0.047034   0.46520    868.25    868.25    868.25 1.00000    0.000 1    0.00    0.00    415.84     59.06   -409.99    -24.56 0 0 0 0
     77      84  0.006198  0.069744   0.01841    304.04    304.04    304.04 1.00000    0.000 1    0.00    0.00    -72.17    -30.30     72.55     32.73 0 0 0 0
     77      89  0.016077  0.099621   0.02821    212.01    212.01    212.01 1.00000    0.000 1    0.00    0.00     80.55     29.30    -79.34    -24.47 0 0 0 0
     77     217  0.005926  0.160000   0.00000     50.00     50.00     50.00 1.00000    0.000 1    0.00    0.00    -23.60     -6.22     23.64      7.19 0 0 0 0
     77     218  0.003529  0.120000   0.00000    100.00    100.00    100.00 1.00000    0.000 1    0.00    0.00    -25.22    -19.07     25.25     20.28 0 0 0 0
     78      79  0.014099  0.097781   0.85988    511.35    511.35    511.35 1.00000    0.000 1    0.00    0.00    140.32    -74.05   -137.55      1.79 0 0 0 0
     78     167  0.005724  0.038942   0.35603    530.03    530.03    530.03 1.00000    0.000 1    0.00    0.00    -64.32    -16.90     64.55    -18.90 0 0 0 0
     79      87  0.008106  0.052075   0.53493    530.03    530.03    530.03 1.00000    0.000 1    0.00    0.00      5.16    -38.94     -5.15    -19.13 0 0 0 0
     80      81  0.005975  0.042908   0.35164    530.03    530.03    530.03 1.00000    0.000 1    0.00    0.00    -75.26      2.64     75.61    -36.62 0 0 0 0
     80      87  0.003558  0.071801   1.18166    696.37    696.37    696.37 1.00000    0.000 1    0.00    0.00    121.56    -96.72   -121.01    -18.30 0 0 0 0
     81      82  0.007764  0.053845   0.47351    530.03    530.03    530.03 1.00000    0.000 1    0.00    0.00   -192.51      7.40    195.37    -36.69 0 0 0 0
     82      83  0.007662  0.053138   0.46730    530.03    530.03    530.03 1.00000    0.000 1    0.00    0.00    -34.29    -20.29     34.38    -27.75 0 0 0 0
     83     219  0.005009  0.034736   0.30546    530.03    530.03    530.03 1.00000    0.000 1    0.00    0.00   -120.61     -0.35    121.32    -26.58 0 0 0 0
     84     219  0.000224  0.011429   0.00000   1050.00   1050.00   1050.00 1.00000    0.000 1    0.00    0.00    160.18    -20.67   -160.12     23.53 0 0 0 0
     85     154  0.017306  0.084819   0.15179    289.22    289.22    289.22 1.00000    0.000 1    0.00    0.00    -11.84      5.16     11.89    -19.71 0 0 0 0
    217      85  0.004299  0.043533   0.08806    471.67    471.67    471.67 1.00000    0.000 1    0.00    0.00     63.13     21.91    -62.93    -28.68 0 0 0 0
     86      88  0.044131  0.145633   0.03817    137.68    137.68    137.68 1.00000    0.000 1    0.00    0.00    -19.96    -12.78     20.20      9.75 0 0 0 0
     86     169  0.025279  0.129580   0.03558    187.39    187.39    187.39 1.00000    0.000 1    0.00    0.00    -47.83      6.34     48.44     -6.68 0 0 0 0
     86     220  0.000744  0.032000   0.00000    250.00    250.00    250.00 1.00000    0.000 1    0.00    0.00    -45.27    -25.40     45.29     26.28 0 0 0 0
...